/*--------------------------------*- C++ -*----------------------------------*\
| =========                 |                                                 |
| \\      /  F ield         | OpenFOAM: The Open Source CFD Toolbox           |
|  \\    /   O peration     | Version:  plus                                  |
|   \\  /    A nd           | Web:      www.OpenFOAM.com                      |
|    \\/     M anipulation  |                                                 |
\*---------------------------------------------------------------------------*/
FoamFile
{
    version     2.0;
    format      ascii;
    class       dictionary;
    location    "system";
    object      fvSchemes;
}
// * * * * * * * * * * * * * * * * * * * * * * * * * * * * * * * * * * * * * //

ddtSchemes
{
    //default CrankNicolson 0.5;
    default Euler;
}

gradSchemes
{
	default cellLimited Gauss linear 1;
    	//default         leastSquares;
	//default         Gauss linear;
    	//grad(p)         Gauss linear limited 0.5;
	//default cellMDLimited Gauss linear 0.5;
	//grad(U) cellMDLimited Gauss linear 0.5;
}

divSchemes
{
    	default          none;
    	div(phi,U)       Gauss linearUpwindV grad(U);
	div(phi,k)       Gauss linearUpwind default;
    	div(phi,epsilon) Gauss linearUpwind default;
    	div(phi,omega)   Gauss linearUpwind default;
 	div(div(phi,U))  Gauss linearUpwind default;
    	div((nuEff*dev2(T(grad(U))))) Gauss linear;
}


laplacianSchemes
{
    	default         Gauss linear limited 0.5;
	laplacian(yPsi) Gauss linear corrected;
}

interpolationSchemes
{
    default         linear;
}

snGradSchemes
{ 
    default         limited 0.5;
}

oversetInterpolation
{
    //method          leastSquares;
    method          inverseDistance;
    //method            cellVolumeWeight;
    //holeLayers          1;
    //useLayer            1;
}

fluxRequired
{
    default         no;
    pcorr           ;
    p               ;
}

wallDist
{
    method meshWave;
    //method Poisson;
}
