/*--------------------------------*- C++ -*----------------------------------*\
| =========                 |                                                 |
| \\      /  F ield         | OpenFOAM: The Open Source CFD Toolbox           |
|  \\    /   O peration     | Version:  v2406                                 |
|   \\  /    A nd           | Website:  www.openfoam.com                      |
|    \\/     M anipulation  |                                                 |
\*---------------------------------------------------------------------------*/
FoamFile
{
    version     2.0;
    format      ascii;
    class       dictionary;
    object      dynamicMeshDict;
}
// * * * * * * * * * * * * * * * * * * * * * * * * * * * * * * * * * * * * * //

motionSolverLibs ( "libsixDoFRigidBodyMotion.so" );

dynamicFvMesh       dynamicOversetFvMesh;

solver              sixDoFRigidBodyMotion;

diffusivity         quadratic inverseDistance 1 ( seed );

sixDoFRigidBodyMotionCoeffs
{
    patches             ( seed );
    innerDistance       15; 
    outerDistance       20;
    centreOfMass        (0 0 0);
    mass                5.5e-05;
    momentOfInertia     (1.75875617e-09 3.16733146e-10 2.04235612e-09);
    velocity            (0 0 0);
    angularMomentum     (0 0 2.10e-08);
    rho                 rhoInf;
    rhoInf              1.225;
    accelerationRelaxation 1;
    accelerationDamping	1;
    report              on;
    reportToFile        on;
    g                   (0 0 -9.81); 
    solver
    {
        type            CrankNicolson;
    }




}

// ************************************************************************* //
